@<TRIPOS>MOLECULE
*****
   17    16     0     0     0
SMALL
USER_CHARGES

@<TRIPOS>ATOM
      1 C1          0.8670   -0.9840   -3.7872 C.2       1 TEMOA-G1        -0.1854
      2 C2          0.0423   -0.2822   -2.9979 C.2       1 TEMOA-G1        -0.2217
      3 C3          1.2636   -0.4932   -5.1868 C.2       1 TEMOA-G1         0.8906
      4 C4         -0.3751   -0.1649    0.8303 C.3       1 TEMOA-G1        -0.0912
      5 C5         -0.3719   -0.7315   -1.6252 C.3       1 TEMOA-G1        -0.0366
      6 C6          0.0659    0.2722   -0.5581 C.3       1 TEMOA-G1        -0.0724
      7 O1          0.7775    0.6080   -5.5681 O.co2     1 TEMOA-G1        -0.8428
      8 O2          2.0496   -1.2729   -5.8016 O.co2     1 TEMOA-G1        -0.8428
      9 H1          1.2682   -1.9290   -3.4229 H         1 TEMOA-G1         0.0946
     10 H2         -0.3765    0.6618   -3.3365 H         1 TEMOA-G1         0.1278
     11 H3         -1.4623   -0.2832    0.8775 H         1 TEMOA-G1         0.0280
     12 H4         -0.0821    0.5830    1.5737 H         1 TEMOA-G1         0.0280
     13 H5          0.0873   -1.1178    1.1069 H         1 TEMOA-G1         0.0280
     14 H6         -1.4633   -0.8376   -1.6102 H         1 TEMOA-G1         0.0212
     15 H7          0.0457   -1.7195   -1.3955 H         1 TEMOA-G1         0.0212
     16 H8          1.1573    0.3808   -0.5698 H         1 TEMOA-G1         0.0268
     17 H9         -0.3581    1.2607   -0.7732 H         1 TEMOA-G1         0.0268
@<TRIPOS>BOND
     1    1    2 2
     2    1    3 1
     3    2    5 1
     4    3    7 1
     5    3    8 2
     6    4    6 1
     7    5    6 1
     8    1    9 1
     9    2   10 1
    10    4   11 1
    11    4   12 1
    12    4   13 1
    13    5   14 1
    14    5   15 1
    15    6   16 1
    16    6   17 1
