@<TRIPOS>MOLECULE
*****
   25    25     0     0     0
SMALL
USER_CHARGES

@<TRIPOS>ATOM
      1 C1         -0.2848   -0.9039   -3.7487 C.2       1 TEMOA-G2        -0.2215
      2 C2         -0.3686    0.4164   -3.9659 C.2       1 TEMOA-G2        -0.1375
      3 C3          1.6519   -0.1593   -1.3363 C.2       1 TEMOA-G2        -0.2457
      4 C4          0.0109    0.9140   -5.2906 C.2       1 TEMOA-G2         0.9000
      5 C5          0.5088   -0.1852   -0.6351 C.2       1 TEMOA-G2        -0.0950
      6 C6         -0.6366   -1.5348   -2.4293 C.3       1 TEMOA-G2        -0.0254
      7 C7         -0.8449    1.4032   -2.9441 C.3       1 TEMOA-G2        -0.0395
      8 C8         -1.5404    0.7303   -1.7537 C.3       1 TEMOA-G2        -0.0668
      9 C9         -0.8065   -0.5300   -1.2732 C.3       1 TEMOA-G2        -0.0291
     10 C10         0.4706    0.1291    0.8310 C.3       1 TEMOA-G2        -0.0621
     11 O1          0.8937    0.2342   -5.8850 O.co2     1 TEMOA-G2        -0.8377
     12 O2         -0.5948    1.9573   -5.6641 O.co2     1 TEMOA-G2        -0.8377
     13 H1          0.0482   -1.5759   -4.5358 H         1 TEMOA-G2         0.1308
     14 H2          2.5970    0.0910   -0.8661 H         1 TEMOA-G2         0.1077
     15 H3          1.6692   -0.3878   -2.3968 H         1 TEMOA-G2         0.1077
     16 H4         -1.5710   -2.1040   -2.5493 H         1 TEMOA-G2         0.0233
     17 H5          0.1452   -2.2724   -2.1895 H         1 TEMOA-G2         0.0233
     18 H6         -0.0019    1.9950   -2.5695 H         1 TEMOA-G2         0.0551
     19 H7         -1.5401    2.1000   -3.4273 H         1 TEMOA-G2         0.0551
     20 H8         -1.6177    1.4553   -0.9228 H         1 TEMOA-G2         0.0247
     21 H9         -2.5799    0.4903   -2.0374 H         1 TEMOA-G2         0.0247
     22 H10        -1.4286   -1.0044   -0.4925 H         1 TEMOA-G2         0.0441
     23 H11         0.3056    1.2004    0.9857 H         1 TEMOA-G2         0.0338
     24 H12        -0.3419   -0.4215    1.3162 H         1 TEMOA-G2         0.0338
     25 H13         1.4044   -0.1408    1.3356 H         1 TEMOA-G2         0.0338
@<TRIPOS>BOND
     1    1    2 2
     2    1    6 1
     3    2    4 1
     4    2    7 1
     5    3    5 2
     6    4   11 1
     7    4   12 2
     8    5    9 1
     9    5   10 1
    10    6    9 1
    11    7    8 1
    12    8    9 1
    13    1   13 1
    14    3   14 1
    15    3   15 1
    16    6   16 1
    17    6   17 1
    18    7   18 1
    19    7   19 1
    20    8   20 1
    21    8   21 1
    22    9   22 1
    23   10   23 1
    24   10   24 1
    25   10   25 1
