@<TRIPOS>MOLECULE
*****
   17    16     0     0     0
SMALL
USER_CHARGES

@<TRIPOS>ATOM
      1 C1          0.0579   -0.2224    1.1129 C.2       1 TEMOA-G3        -0.2570
      2 C2         -0.0532    0.3026   -0.1124 C.2       1 TEMOA-G3        -0.1311
      3 C3          0.2217    0.1740   -3.7845 C.2       1 TEMOA-G3         0.9083
      4 C4          1.0900    0.9087   -0.8720 C.3       1 TEMOA-G3        -0.0618
      5 C5          0.8575   -0.7724   -2.7605 C.3       1 TEMOA-G3        -0.1958
      6 C6          1.7968   -0.1386   -1.7379 C.3       1 TEMOA-G3        -0.0471
      7 O1         -0.5028    1.0778   -3.2766 O.co2     1 TEMOA-G3        -0.8540
      8 O2          0.4991   -0.0424   -4.9960 O.co2     1 TEMOA-G3        -0.8540
      9 H1         -0.7956   -0.6507    1.6265 H         1 TEMOA-G3         0.0987
     10 H2          1.0155   -0.2306    1.6220 H         1 TEMOA-G3         0.0987
     11 H3         -1.0243    0.2856   -0.6004 H         1 TEMOA-G3         0.1098
     12 H4          1.7990    1.3314   -0.1501 H         1 TEMOA-G3         0.0458
     13 H5          0.7394    1.7402   -1.4942 H         1 TEMOA-G3         0.0458
     14 H6          0.0262   -1.2451   -2.2223 H         1 TEMOA-G3         0.0211
     15 H7          1.3848   -1.5729   -3.2943 H         1 TEMOA-G3         0.0211
     16 H8          2.6251    0.3383   -2.2777 H         1 TEMOA-G3         0.0257
     17 H9          2.2435   -0.9128   -1.1018 H         1 TEMOA-G3         0.0257
@<TRIPOS>BOND
     1    1    2 2
     2    2    4 1
     3    3    5 1
     4    3    7 1
     5    3    8 2
     6    4    6 1
     7    5    6 1
     8    1    9 1
     9    1   10 1
    10    2   11 1
    11    4   12 1
    12    4   13 1
    13    5   14 1
    14    5   15 1
    15    6   16 1
    16    6   17 1
