@<TRIPOS>MOLECULE
*****
   17    16     0     0     0
SMALL
USER_CHARGES

@<TRIPOS>ATOM
      1 C1          0.0900   -0.0673    0.7747 C.2       1 TEMOA-G5        -0.2672
      2 C2          0.1811    0.3535   -0.4918 C.2       1 TEMOA-G5        -0.1210
      3 C3         -0.0017    0.3858   -3.7360 C.2       1 TEMOA-G5         0.9139
      4 C4         -0.8575   -1.4493   -2.3824 C.3       1 TEMOA-G5        -0.0646
      5 C5          1.1459   -0.2079   -1.4975 C.3       1 TEMOA-G5        -0.0357
      6 C6          0.4325   -0.7203   -2.7536 C.3       1 TEMOA-G5        -0.1855
      7 O1         -0.7712    1.2734   -3.2726 O.co2     1 TEMOA-G5        -0.8470
      8 O2          0.4693    0.2637   -4.9038 O.co2     1 TEMOA-G5        -0.8470
      9 H1         -0.6224    0.3675    1.4669 H         1 TEMOA-G5         0.0956
     10 H2          0.7352   -0.8596    1.1382 H         1 TEMOA-G5         0.0956
     11 H3         -0.4709    1.1584   -0.8211 H         1 TEMOA-G5         0.1121
     12 H4         -1.5412   -0.7785   -1.8515 H         1 TEMOA-G5         0.0157
     13 H5         -0.6562   -2.3048   -1.7278 H         1 TEMOA-G5         0.0157
     14 H6         -1.3772   -1.8263   -3.2707 H         1 TEMOA-G5         0.0157
     15 H7          1.7557   -1.0016   -1.0476 H         1 TEMOA-G5         0.0359
     16 H8          1.8413    0.5942   -1.7758 H         1 TEMOA-G5         0.0359
     17 H9          1.0905   -1.4228   -3.2825 H         1 TEMOA-G5         0.0317
@<TRIPOS>BOND
     1    1    2 2
     2    2    5 1
     3    3    6 1
     4    3    7 1
     5    3    8 2
     6    4    6 1
     7    5    6 1
     8    1    9 1
     9    1   10 1
    10    2   11 1
    11    4   12 1
    12    4   13 1
    13    4   14 1
    14    5   15 1
    15    5   16 1
    16    6   17 1
