@<TRIPOS>MOLECULE
*****
   29    28     0     0     0
SMALL
USER_CHARGES

@<TRIPOS>ATOM
      1 C1         -0.7738   -0.4624   -1.5272 C.2       1 TEMOA-G4        -0.1404
      2 C2          0.0900   -0.2017   -0.5279 C.2       1 TEMOA-G4        -0.1495
      3 C3          1.9721   -0.5638   -6.6376 C.2       1 TEMOA-G4         0.9070
      4 C4         -0.2667   -0.1587    0.9310 C.3       1 TEMOA-G4        -0.0516
      5 C5          1.5425    0.0614   -0.8230 C.3       1 TEMOA-G4        -0.0516
      6 C6         -0.7592    1.0296   -5.9004 C.3       1 TEMOA-G4        -0.0863
      7 C7         -0.4812   -0.5199   -3.0009 C.3       1 TEMOA-G4        -0.0513
      8 C8          1.1098   -0.5507   -5.3694 C.3       1 TEMOA-G4        -0.1913
      9 C9          0.0763    0.8149   -3.5050 C.3       1 TEMOA-G4        -0.0702
     10 C10         0.4588    0.7930   -5.0011 C.3       1 TEMOA-G4        -0.0468
     11 O1          2.5569   -1.6629   -6.8588 O.co2     1 TEMOA-G4        -0.8535
     12 O2          2.0122    0.5116   -7.2965 O.co2     1 TEMOA-G4        -0.8535
     13 H1         -1.8103   -0.6752   -1.2685 H         1 TEMOA-G4         0.1136
     14 H2         -0.1463   -1.1522    1.3765 H         1 TEMOA-G4         0.0329
     15 H3         -1.2986    0.1471    1.1179 H         1 TEMOA-G4         0.0329
     16 H4          0.3929    0.5372    1.4595 H         1 TEMOA-G4         0.0329
     17 H5          1.7485    1.1235   -0.9926 H         1 TEMOA-G4         0.0329
     18 H6          1.8525   -0.4842   -1.7202 H         1 TEMOA-G4         0.0329
     19 H7          2.1643   -0.2668    0.0163 H         1 TEMOA-G4         0.0329
     20 H8         -1.5175    0.2540   -5.7584 H         1 TEMOA-G4         0.0239
     21 H9         -0.4722    1.0077   -6.9573 H         1 TEMOA-G4         0.0239
     22 H10        -1.2209    2.0014   -5.6957 H         1 TEMOA-G4         0.0239
     23 H11        -1.4209   -0.7572   -3.5127 H         1 TEMOA-G4         0.0439
     24 H12         0.2081   -1.3338   -3.2452 H         1 TEMOA-G4         0.0439
     25 H13         0.3336   -1.3218   -5.4602 H         1 TEMOA-G4         0.0220
     26 H14         1.7756   -0.8685   -4.5562 H         1 TEMOA-G4         0.0220
     27 H15        -0.6579    1.6114   -3.3243 H         1 TEMOA-G4         0.0397
     28 H16         0.9616    1.0702   -2.9091 H         1 TEMOA-G4         0.0397
     29 H17         1.1762    1.6011   -5.1919 H         1 TEMOA-G4         0.0452
@<TRIPOS>BOND
     1    1    2 2
     2    1    7 1
     3    2    4 1
     4    2    5 1
     5    3    8 1
     6    3   11 1
     7    3   12 2
     8    6   10 1
     9    7    9 1
    10    8   10 1
    11    9   10 1
    12    1   13 1
    13    4   14 1
    14    4   15 1
    15    4   16 1
    16    5   17 1
    17    5   18 1
    18    5   19 1
    19    6   20 1
    20    6   21 1
    21    6   22 1
    22    7   23 1
    23    7   24 1
    24    8   25 1
    25    8   26 1
    26    9   27 1
    27    9   28 1
    28   10   29 1
