@<TRIPOS>MOLECULE
*****
   20    20     0     0     0
SMALL
USER_CHARGES

@<TRIPOS>ATOM
      1 C1         -0.3311    0.3859   -3.3974 C.2       1 TEMOA-G0         0.9081
      2 C2          1.3577    0.2859    0.4824 C.3       1 TEMOA-G0        -0.0764
      3 C3         -0.0765    0.1309    0.9913 C.3       1 TEMOA-G0        -0.0764
      4 C4          1.3094    0.0002   -1.0155 C.3       1 TEMOA-G0        -0.0801
      5 C5         -0.9215   -0.2224   -0.2283 C.3       1 TEMOA-G0        -0.0801
      6 C6          0.0705   -0.8732   -1.1870 C.3       1 TEMOA-G0        -0.0401
      7 C7         -0.4297   -0.9283   -2.6198 C.3       1 TEMOA-G0        -0.1893
      8 O1         -0.9981    1.3595   -2.9520 O.co2     1 TEMOA-G0        -0.8533
      9 O2          0.4248    0.3285   -4.4104 O.co2     1 TEMOA-G0        -0.8533
     10 H1          1.7550    1.2861    0.6837 H         1 TEMOA-G0         0.0208
     11 H2          2.0108   -0.4345    0.9884 H         1 TEMOA-G0         0.0208
     12 H3         -0.1206   -0.6754    1.7325 H         1 TEMOA-G0         0.0208
     13 H4         -0.4381    1.0428    1.4769 H         1 TEMOA-G0         0.0208
     14 H5          1.2030    0.9420   -1.5678 H         1 TEMOA-G0         0.0410
     15 H6          2.2200   -0.4941   -1.3681 H         1 TEMOA-G0         0.0410
     16 H7         -1.7525   -0.8869    0.0274 H         1 TEMOA-G0         0.0410
     17 H8         -1.3436    0.6919   -0.6635 H         1 TEMOA-G0         0.0410
     18 H9          0.2932   -1.8921   -0.8437 H         1 TEMOA-G0         0.0500
     19 H10        -1.4793   -1.2428   -2.6176 H         1 TEMOA-G0         0.0218
     20 H11         0.1397   -1.6888   -3.1658 H         1 TEMOA-G0         0.0218
@<TRIPOS>BOND
     1    1    7 1
     2    1    8 1
     3    1    9 2
     4    2    3 1
     5    2    4 1
     6    3    5 1
     7    4    6 1
     8    5    6 1
     9    6    7 1
    10    2   10 1
    11    2   11 1
    12    3   12 1
    13    3   13 1
    14    4   14 1
    15    4   15 1
    16    5   16 1
    17    5   17 1
    18    6   18 1
    19    7   19 1
    20    7   20 1
