@<TRIPOS>MOLECULE
*****
   20    19     0     0     0
SMALL
USER_CHARGES

@<TRIPOS>ATOM
      1 C1          0.0702   -0.1381    1.0193 C.2       1 TEMOA-G7        -0.2722
      2 C2          0.5528   -0.2908   -0.2190 C.2       1 TEMOA-G7        -0.1158
      3 C3          0.4617   -0.4601   -3.5009 C.2       1 TEMOA-G7         0.9203
      4 C4         -0.4942    1.7705   -3.3232 C.3       1 TEMOA-G7        -0.0613
      5 C5         -1.6676   -0.0773   -2.1169 C.3       1 TEMOA-G7        -0.0613
      6 C6          0.5581    0.7962   -1.2593 C.3       1 TEMOA-G7        -0.0318
      7 C7         -0.2924    0.4789   -2.5120 C.3       1 TEMOA-G7        -0.1761
      8 O1          0.7573   -1.6047   -3.0494 O.co2     1 TEMOA-G7        -0.8421
      9 O2          0.7084    0.0236   -4.6424 O.co2     1 TEMOA-G7        -0.8421
     10 H1          0.1020   -0.9599    1.7262 H         1 TEMOA-G7         0.0940
     11 H2         -0.3635    0.7998    1.3478 H         1 TEMOA-G7         0.0940
     12 H3          0.9818   -1.2509   -0.4929 H         1 TEMOA-G7         0.1179
     13 H4         -1.0226    2.5330   -2.7385 H         1 TEMOA-G7         0.0174
     14 H5          0.4683    2.1955   -3.6300 H         1 TEMOA-G7         0.0174
     15 H6         -1.0800    1.5928   -4.2326 H         1 TEMOA-G7         0.0174
     16 H7         -2.1894    0.5897   -1.4220 H         1 TEMOA-G7         0.0174
     17 H8         -1.5803   -1.0520   -1.6228 H         1 TEMOA-G7         0.0174
     18 H9         -2.3056   -0.2142   -2.9973 H         1 TEMOA-G7         0.0174
     19 H10         1.6035    0.9765   -1.5422 H         1 TEMOA-G7         0.0361
     20 H11         0.2063    1.7376   -0.8156 H         1 TEMOA-G7         0.0361
@<TRIPOS>BOND
     1    1    2 2
     2    2    6 1
     3    3    7 1
     4    3    8 1
     5    3    9 2
     6    4    7 1
     7    5    7 1
     8    6    7 1
     9    1   10 1
    10    1   11 1
    11    2   12 1
    12    4   13 1
    13    4   14 1
    14    4   15 1
    15    5   16 1
    16    5   17 1
    17    5   18 1
    18    6   19 1
    19    6   20 1
