@<TRIPOS>MOLECULE
*****
   19    18     0     0     0
SMALL
USER_CHARGES

@<TRIPOS>ATOM
      1 C1         -0.0706   -0.0941   -3.6320 C.2       1 TEMOA-G6         0.9077
      2 C2          1.5017   -0.1941   -1.1856 C.3       1 TEMOA-G6        -0.0835
      3 C3          0.1999   -0.0606    0.9474 C.3       1 TEMOA-G6        -0.0835
      4 C4         -1.1206    0.4993   -2.6885 C.3       1 TEMOA-G6        -0.1945
      5 C5         -1.0406    0.0352   -1.2352 C.3       1 TEMOA-G6        -0.0475
      6 C6          0.2681    0.4058   -0.5095 C.3       1 TEMOA-G6        -0.0731
      7 O1          0.3555    0.6719   -4.5401 O.co2     1 TEMOA-G6        -0.8547
      8 O2          0.2297   -1.2982   -3.3904 O.co2     1 TEMOA-G6        -0.8547
      9 H1          1.4344   -1.2871   -1.2166 H         1 TEMOA-G6         0.0219
     10 H2          2.4166    0.0569   -0.6403 H         1 TEMOA-G6         0.0219
     11 H3          1.6060    0.1669   -2.2143 H         1 TEMOA-G6         0.0219
     12 H4          0.0869   -1.1485    1.0028 H         1 TEMOA-G6         0.0219
     13 H5         -0.6570    0.3889    1.4606 H         1 TEMOA-G6         0.0219
     14 H6          1.1066    0.2152    1.4964 H         1 TEMOA-G6         0.0219
     15 H7         -2.1233    0.3142   -3.0900 H         1 TEMOA-G6         0.0204
     16 H8         -0.9784    1.5874   -2.7132 H         1 TEMOA-G6         0.0204
     17 H9         -1.1697   -1.0548   -1.2141 H         1 TEMOA-G6         0.0254
     18 H10        -1.8892    0.4533   -0.6786 H         1 TEMOA-G6         0.0254
     19 H11         0.3804    1.4966   -0.5018 H         1 TEMOA-G6         0.0605
@<TRIPOS>BOND
     1    1    4 1
     2    1    7 1
     3    1    8 2
     4    2    6 1
     5    3    6 1
     6    4    5 1
     7    5    6 1
     8    2    9 1
     9    2   10 1
    10    2   11 1
    11    3   12 1
    12    3   13 1
    13    3   14 1
    14    4   15 1
    15    4   16 1
    16    5   17 1
    17    5   18 1
    18    6   19 1
